# generated using pymatgen
data_H7C8
_symmetry_space_group_name_H-M   'P 1'
_cell_length_a   8.00490000
_cell_length_b   8.58150000
_cell_length_c   32.38050000
_cell_angle_alpha   90.00000000
_cell_angle_beta   90.00000000
_cell_angle_gamma   90.00000000
_symmetry_Int_Tables_number   1
_chemical_formula_structural   H7C8
_chemical_formula_sum   'H112 C128'
_cell_volume   2224.34766498
_cell_formula_units_Z   16
loop_
 _symmetry_equiv_pos_site_id
 _symmetry_equiv_pos_as_xyz
  1  'x, y, z'
loop_
 _atom_site_type_symbol
 _atom_site_label
 _atom_site_symmetry_multiplicity
 _atom_site_fract_x
 _atom_site_fract_y
 _atom_site_fract_z
 _atom_site_occupancy
  H  H1  1  0.101700  0.489300  0.408000  1.0
  H  H2  1  0.398300  0.510700  0.908000  1.0
  H  H3  1  0.898300  0.989300  0.092000  1.0
  H  H4  1  0.601700  0.010700  0.592000  1.0
  H  H5  1  0.032900  0.458000  0.476200  1.0
  H  H6  1  0.467100  0.542000  0.976200  1.0
  H  H7  1  0.967100  0.958000  0.023800  1.0
  H  H8  1  0.532900  0.042000  0.523800  1.0
  H  H9  1  0.765500  0.393800  0.495500  1.0
  H  H10  1  0.734500  0.606200  0.995500  1.0
  H  H11  1  0.234500  0.893800  0.004500  1.0
  H  H12  1  0.265500  0.106200  0.504500  1.0
  H  H13  1  0.939500  0.358200  0.328600  1.0
  H  H14  1  0.560500  0.641800  0.828600  1.0
  H  H15  1  0.060500  0.858200  0.171400  1.0
  H  H16  1  0.439500  0.141800  0.671400  1.0
  H  H17  1  0.010700  0.526300  0.336400  1.0
  H  H18  1  0.489300  0.473700  0.836400  1.0
  H  H19  1  0.989300  0.026300  0.163600  1.0
  H  H20  1  0.510700  0.973700  0.663600  1.0
  H  H21  1  0.748100  0.637100  0.325200  1.0
  H  H22  1  0.751900  0.362900  0.825200  1.0
  H  H23  1  0.251900  0.137100  0.174800  1.0
  H  H24  1  0.248100  0.862900  0.674800  1.0
  H  H25  1  0.788700  0.530600  0.287000  1.0
  H  H26  1  0.711300  0.469400  0.787000  1.0
  H  H27  1  0.211300  0.030600  0.213000  1.0
  H  H28  1  0.288700  0.969400  0.713000  1.0
  H  H29  1  0.228700  0.208200  0.348500  1.0
  H  H30  1  0.271300  0.791800  0.848500  1.0
  H  H31  1  0.771300  0.708200  0.151500  1.0
  H  H32  1  0.728700  0.291800  0.651500  1.0
  H  H33  1  0.274200  0.294600  0.282700  1.0
  H  H34  1  0.225800  0.705400  0.782700  1.0
  H  H35  1  0.725800  0.794600  0.217300  1.0
  H  H36  1  0.774200  0.205400  0.717300  1.0
  H  H37  1  0.507400  0.441700  0.267900  1.0
  H  H38  1  0.992600  0.558300  0.767900  1.0
  H  H39  1  0.492600  0.941700  0.232100  1.0
  H  H40  1  0.007400  0.058300  0.732100  1.0
  H  H41  1  0.469700  0.138300  0.419800  1.0
  H  H42  1  0.030300  0.861700  0.919800  1.0
  H  H43  1  0.530300  0.638300  0.080200  1.0
  H  H44  1  0.969700  0.361700  0.580200  1.0
  H  H45  1  0.296800  0.223900  0.422900  1.0
  H  H46  1  0.203200  0.776100  0.922900  1.0
  H  H47  1  0.703200  0.723900  0.077100  1.0
  H  H48  1  0.796800  0.276100  0.577100  1.0
  H  H49  1  0.422000  0.445900  0.448700  1.0
  H  H50  1  0.078000  0.554100  0.948700  1.0
  H  H51  1  0.578000  0.945900  0.051300  1.0
  H  H52  1  0.922000  0.054100  0.551300  1.0
  H  H53  1  0.482100  0.304800  0.475800  1.0
  H  H54  1  0.017900  0.695200  0.975800  1.0
  H  H55  1  0.517900  0.804800  0.024200  1.0
  H  H56  1  0.982100  0.195200  0.524200  1.0
  H  H57  1  0.584500  0.759700  0.386700  1.0
  H  H58  1  0.915500  0.240300  0.886700  1.0
  H  H59  1  0.415500  0.259700  0.113300  1.0
  H  H60  1  0.084500  0.740300  0.613300  1.0
  H  H61  1  0.528500  0.747600  0.456500  1.0
  H  H62  1  0.971500  0.252400  0.956500  1.0
  H  H63  1  0.471500  0.247600  0.043500  1.0
  H  H64  1  0.028500  0.752400  0.543500  1.0
  H  H65  1  0.265500  0.801600  0.480800  1.0
  H  H66  1  0.234500  0.198400  0.980800  1.0
  H  H67  1  0.734500  0.301600  0.019200  1.0
  H  H68  1  0.765500  0.698400  0.519200  1.0
  H  H69  1  0.478000  0.767900  0.315600  1.0
  H  H70  1  0.022000  0.232100  0.815600  1.0
  H  H71  1  0.522000  0.267900  0.184400  1.0
  H  H72  1  0.978000  0.732100  0.684400  1.0
  H  H73  1  0.413000  0.940500  0.316200  1.0
  H  H74  1  0.087000  0.059500  0.816200  1.0
  H  H75  1  0.587000  0.440500  0.183800  1.0
  H  H76  1  0.913000  0.559500  0.683800  1.0
  H  H77  1  0.252000  0.805300  0.269500  1.0
  H  H78  1  0.248000  0.194700  0.769500  1.0
  H  H79  1  0.748000  0.305300  0.230500  1.0
  H  H80  1  0.752000  0.694700  0.730500  1.0
  H  H81  1  0.214400  0.674300  0.302000  1.0
  H  H82  1  0.285600  0.325700  0.802000  1.0
  H  H83  1  0.785600  0.174300  0.198000  1.0
  H  H84  1  0.714400  0.825700  0.698000  1.0
  H  H85  1  0.700600  0.076100  0.350500  1.0
  H  H86  1  0.799400  0.923900  0.850500  1.0
  H  H87  1  0.299400  0.576100  0.149500  1.0
  H  H88  1  0.200600  0.423900  0.649500  1.0
  H  H89  1  0.737800  0.034900  0.281300  1.0
  H  H90  1  0.762200  0.965100  0.781300  1.0
  H  H91  1  0.262200  0.534900  0.218700  1.0
  H  H92  1  0.237800  0.465100  0.718700  1.0
  H  H93  1  0.969600  0.909500  0.257200  1.0
  H  H94  1  0.530400  0.090500  0.757200  1.0
  H  H95  1  0.030400  0.409500  0.242800  1.0
  H  H96  1  0.469600  0.590500  0.742800  1.0
  H  H97  1  0.785300  0.017300  0.422300  1.0
  H  H98  1  0.714700  0.982700  0.922300  1.0
  H  H99  1  0.214700  0.517300  0.077700  1.0
  H  H100  1  0.285300  0.482700  0.577700  1.0
  H  H101  1  0.956500  0.106400  0.421300  1.0
  H  H102  1  0.543500  0.893600  0.921300  1.0
  H  H103  1  0.043500  0.606400  0.078700  1.0
  H  H104  1  0.456500  0.393600  0.578700  1.0
  H  H105  1  0.982700  0.909500  0.469000  1.0
  H  H106  1  0.517300  0.090500  0.969000  1.0
  H  H107  1  0.017300  0.409500  0.031000  1.0
  H  H108  1  0.482700  0.590500  0.531000  1.0
  H  H109  1  0.915400  0.785500  0.437500  1.0
  H  H110  1  0.584600  0.214500  0.937500  1.0
  H  H111  1  0.084600  0.285500  0.062500  1.0
  H  H112  1  0.415400  0.714500  0.562500  1.0
  C  C113  1  0.992700  0.464000  0.415370  1.0
  C  C114  1  0.507300  0.536000  0.915370  1.0
  C  C115  1  0.007300  0.964000  0.084630  1.0
  C  C116  1  0.492700  0.036000  0.584630  1.0
  C  C117  1  0.951300  0.445000  0.456060  1.0
  C  C118  1  0.548700  0.555000  0.956060  1.0
  C  C119  1  0.048700  0.945000  0.043940  1.0
  C  C120  1  0.451300  0.055000  0.543940  1.0
  C  C121  1  0.790700  0.407000  0.467670  1.0
  C  C122  1  0.709300  0.593000  0.967670  1.0
  C  C123  1  0.209300  0.907000  0.032330  1.0
  C  C124  1  0.290700  0.093000  0.532330  1.0
  C  C125  1  0.665600  0.388200  0.438040  1.0
  C  C126  1  0.834400  0.611800  0.938040  1.0
  C  C127  1  0.334400  0.888200  0.061960  1.0
  C  C128  1  0.165600  0.111800  0.561960  1.0
  C  C129  1  0.709200  0.407400  0.396460  1.0
  C  C130  1  0.790800  0.592600  0.896460  1.0
  C  C131  1  0.290800  0.907400  0.103540  1.0
  C  C132  1  0.209200  0.092600  0.603540  1.0
  C  C133  1  0.872100  0.445500  0.385140  1.0
  C  C134  1  0.627900  0.554500  0.885140  1.0
  C  C135  1  0.127900  0.945500  0.114860  1.0
  C  C136  1  0.372100  0.054500  0.614860  1.0
  C  C137  1  0.913400  0.460200  0.339790  1.0
  C  C138  1  0.586600  0.539800  0.839790  1.0
  C  C139  1  0.086600  0.960200  0.160210  1.0
  C  C140  1  0.413400  0.039800  0.660210  1.0
  C  C141  1  0.765200  0.530200  0.316420  1.0
  C  C142  1  0.734800  0.469800  0.816420  1.0
  C  C143  1  0.234800  0.030200  0.183580  1.0
  C  C144  1  0.265200  0.969800  0.683580  1.0
  C  C145  1  0.610600  0.436900  0.324640  1.0
  C  C146  1  0.889400  0.563100  0.824640  1.0
  C  C147  1  0.389400  0.936900  0.175360  1.0
  C  C148  1  0.110600  0.063100  0.675360  1.0
  C  C149  1  0.581400  0.382100  0.364450  1.0
  C  C150  1  0.918600  0.617900  0.864450  1.0
  C  C151  1  0.418600  0.882100  0.135550  1.0
  C  C152  1  0.081400  0.117900  0.635550  1.0
  C  C153  1  0.436600  0.299000  0.373940  1.0
  C  C154  1  0.063400  0.701000  0.873940  1.0
  C  C155  1  0.563400  0.799000  0.126060  1.0
  C  C156  1  0.936600  0.201000  0.626060  1.0
  C  C157  1  0.323900  0.266200  0.342620  1.0
  C  C158  1  0.176100  0.733800  0.842620  1.0
  C  C159  1  0.676100  0.766200  0.157380  1.0
  C  C160  1  0.823900  0.233800  0.657380  1.0
  C  C161  1  0.350600  0.317700  0.303410  1.0
  C  C162  1  0.149400  0.682300  0.803410  1.0
  C  C163  1  0.649400  0.817700  0.196590  1.0
  C  C164  1  0.850600  0.182300  0.696590  1.0
  C  C165  1  0.491700  0.404300  0.294540  1.0
  C  C166  1  0.008300  0.595700  0.794540  1.0
  C  C167  1  0.508300  0.904300  0.205460  1.0
  C  C168  1  0.991700  0.095700  0.705460  1.0
  C  C169  1  0.414700  0.238600  0.417260  1.0
  C  C170  1  0.085300  0.761400  0.917260  1.0
  C  C171  1  0.585300  0.738600  0.082740  1.0
  C  C172  1  0.914700  0.261400  0.582740  1.0
  C  C173  1  0.487400  0.350700  0.448430  1.0
  C  C174  1  0.012600  0.649300  0.948430  1.0
  C  C175  1  0.512600  0.850700  0.051570  1.0
  C  C176  1  0.987400  0.149300  0.551570  1.0
  C  C177  1  0.477700  0.781400  0.396350  1.0
  C  C178  1  0.022300  0.218600  0.896350  1.0
  C  C179  1  0.522300  0.281400  0.103650  1.0
  C  C180  1  0.977700  0.718600  0.603650  1.0
  C  C181  1  0.444100  0.774400  0.438110  1.0
  C  C182  1  0.055900  0.225600  0.938110  1.0
  C  C183  1  0.555900  0.274400  0.061890  1.0
  C  C184  1  0.944100  0.725600  0.561890  1.0
  C  C185  1  0.286200  0.806900  0.452590  1.0
  C  C186  1  0.213800  0.193100  0.952590  1.0
  C  C187  1  0.713800  0.306900  0.047410  1.0
  C  C188  1  0.786200  0.693100  0.547410  1.0
  C  C189  1  0.157500  0.847100  0.426120  1.0
  C  C190  1  0.342500  0.152900  0.926120  1.0
  C  C191  1  0.842500  0.347100  0.073880  1.0
  C  C192  1  0.657500  0.652900  0.573880  1.0
  C  C193  1  0.192000  0.854900  0.383470  1.0
  C  C194  1  0.308000  0.145100  0.883470  1.0
  C  C195  1  0.808000  0.354900  0.116530  1.0
  C  C196  1  0.692000  0.645100  0.616530  1.0
  C  C197  1  0.351800  0.820900  0.368810  1.0
  C  C198  1  0.148200  0.179100  0.868810  1.0
  C  C199  1  0.648200  0.320900  0.131190  1.0
  C  C200  1  0.851800  0.679100  0.631190  1.0
  C  C201  1  0.384200  0.833800  0.323040  1.0
  C  C202  1  0.115800  0.166200  0.823040  1.0
  C  C203  1  0.615800  0.333800  0.176960  1.0
  C  C204  1  0.884200  0.666200  0.676960  1.0
  C  C205  1  0.232500  0.785300  0.298550  1.0
  C  C206  1  0.267500  0.214700  0.798550  1.0
  C  C207  1  0.767500  0.285300  0.201450  1.0
  C  C208  1  0.732500  0.714700  0.701450  1.0
  C  C209  1  0.079800  0.872100  0.312310  1.0
  C  C210  1  0.420200  0.127900  0.812310  1.0
  C  C211  1  0.920200  0.372100  0.187690  1.0
  C  C212  1  0.579800  0.627900  0.687690  1.0
  C  C213  1  0.057800  0.900500  0.354540  1.0
  C  C214  1  0.442200  0.099500  0.854540  1.0
  C  C215  1  0.942200  0.400500  0.145460  1.0
  C  C216  1  0.557800  0.599500  0.645460  1.0
  C  C217  1  0.916800  0.976800  0.369190  1.0
  C  C218  1  0.583200  0.023200  0.869190  1.0
  C  C219  1  0.083200  0.476800  0.130810  1.0
  C  C220  1  0.416800  0.523200  0.630810  1.0
  C  C221  1  0.796300  0.025900  0.341140  1.0
  C  C222  1  0.703700  0.974100  0.841140  1.0
  C  C223  1  0.203700  0.525900  0.158860  1.0
  C  C224  1  0.296300  0.474100  0.658860  1.0
  C  C225  1  0.818400  0.000500  0.299840  1.0
  C  C226  1  0.681600  0.999500  0.799840  1.0
  C  C227  1  0.181600  0.500500  0.200160  1.0
  C  C228  1  0.318400  0.499500  0.700160  1.0
  C  C229  1  0.957100  0.925300  0.285450  1.0
  C  C230  1  0.542900  0.074700  0.785450  1.0
  C  C231  1  0.042900  0.425300  0.214550  1.0
  C  C232  1  0.457100  0.574700  0.714550  1.0
  C  C233  1  0.902300  0.008200  0.414900  1.0
  C  C234  1  0.597700  0.991800  0.914900  1.0
  C  C235  1  0.097700  0.508200  0.085100  1.0
  C  C236  1  0.402300  0.491800  0.585100  1.0
  C  C237  1  0.981600  0.879600  0.440090  1.0
  C  C238  1  0.518400  0.120400  0.940090  1.0
  C  C239  1  0.018400  0.379600  0.059910  1.0
  C  C240  1  0.481600  0.620400  0.559910  1.0
